<additional>
    <taz id="TAZ_1" edges="1fi 4si"/>
    <taz id="TAZ_2" edges="3o 2o"/>
</additional>