<configuration>
    <input>
        <net-file value="../hello.net.xml"/>
        <route-files value="hello.rou.xml"/>
    </input>
</configuration>