<nodes>
    <node id="1" x="-250.0" y="0.0" />
    <node id="2" x="+0.0" y="0.0" />
    <node id="3" x="+250.0" y="0.0" type="traffic_light" />
    <node id="4" x="+250.0" y="-100.0" />
</nodes>