<nodes> 
<node id="node0" x="0" y="0" type="priority" /> 
<node id="node1" x="0" y="100" type="priority" /> 
<node id="node2" x="0" y="200" type="priority" /> 
<node id="node3" x="0" y="300" type="priority" /> 
<node id="node4" x="0" y="400" type="priority" /> 
<node id="node5" x="0" y="500" type="priority" /> 
<node id="node6" x="100" y="0" type="priority" /> 
<node id="node7" x="100" y="100" type="priority" /> 
<node id="node8" x="100" y="200" type="priority" /> 
<node id="node9" x="100" y="300" type="priority" /> 
<node id="node10" x="100" y="400" type="priority" /> 
<node id="node11" x="100" y="500" type="priority" /> 
<node id="node12" x="200" y="0" type="priority" /> 
<node id="node13" x="200" y="100" type="priority" /> 
<node id="node14" x="200" y="200" type="priority" /> 
<node id="node15" x="200" y="300" type="priority" /> 
<node id="node16" x="200" y="400" type="priority" /> 
<node id="node17" x="200" y="500" type="priority" /> 
<node id="node18" x="300" y="0" type="priority" /> 
<node id="node19" x="300" y="100" type="priority" /> 
<node id="node20" x="300" y="200" type="priority" /> 
<node id="node21" x="300" y="300" type="priority" /> 
<node id="node22" x="300" y="400" type="priority" /> 
<node id="node23" x="300" y="500" type="priority" /> 
<node id="node24" x="400" y="0" type="priority" /> 
<node id="node25" x="400" y="100" type="priority" /> 
<node id="node26" x="400" y="200" type="priority" /> 
<node id="node27" x="400" y="300" type="priority" /> 
<node id="node28" x="400" y="400" type="priority" /> 
<node id="node29" x="400" y="500" type="priority" /> 
<node id="node30" x="500" y="0" type="priority" /> 
<node id="node31" x="500" y="100" type="priority" /> 
<node id="node32" x="500" y="200" type="priority" /> 
<node id="node33" x="500" y="300" type="priority" /> 
<node id="node34" x="500" y="400" type="priority" /> 
<node id="node35" x="500" y="500" type="priority" /> 
</nodes> 
