<?xml version="1.0" encoding="UTF-8"?>

<!-- generated on 2021-09-22 20:41:02 by Eclipse SUMO netconvert Version 1.10.0
<configuration xmlns:xsi="http://www.w3.org/2001/XMLSchema-instance" xsi:noNamespaceSchemaLocation="http://sumo.dlr.de/xsd/netconvertConfiguration.xsd">

    <input>
        <node-files value="cross.nod.xml"/>
        <edge-files value="cross.edg.xml"/>
    </input>

    <output>
        <output-file value="cross.net.xml"/>
    </output>

    <report>
        <aggregate-warnings value="5"/>
    </report>

</configuration>
-->

<net version="1.9" junctionCornerDetail="5" limitTurnSpeed="5.50" xmlns:xsi="http://www.w3.org/2001/XMLSchema-instance" xsi:noNamespaceSchemaLocation="http://sumo.dlr.de/xsd/net_file.xsd">

    <location netOffset="0.00,0.00" convBoundary="0.00,0.00,500.00,500.00" origBoundary="0.00,0.00,500.00,500.00" projParameter="!"/>

    <edge id=":node0_0" function="internal">
        <lane id=":node0_0_0" index="0" speed="8.96" length="18.06" shape="-4.80,6.40 -4.10,1.50 -2.00,-2.00 1.50,-4.10 6.40,-4.80"/>
        <lane id=":node0_0_1" index="1" speed="7.66" length="12.90" shape="-1.60,6.40 -1.10,2.90 0.40,0.40 2.90,-1.10 6.40,-1.60"/>
    </edge>
    <edge id=":node0_2" function="internal">
        <lane id=":node0_2_0" index="0" speed="3.90" length="2.58" shape="6.40,4.80 5.70,4.90 5.20,5.20 4.90,5.70 4.80,6.40"/>
        <lane id=":node0_2_1" index="1" speed="6.08" length="7.74" shape="6.40,1.60 4.30,1.90 2.80,2.80 1.90,4.30 1.60,6.40"/>
    </edge>
    <edge id=":node1_0" function="internal">
        <lane id=":node1_0_0" index="0" speed="40.00" length="20.80" shape="-4.80,110.40 -4.80,89.60"/>
        <lane id=":node1_0_1" index="1" speed="40.00" length="20.80" shape="-1.60,110.40 -1.60,89.60"/>
    </edge>
    <edge id=":node1_2" function="internal">
        <lane id=":node1_2_0" index="0" speed="9.26" length="6.96" shape="-1.60,110.40 -0.85,105.15 0.00,103.73"/>
    </edge>
    <edge id=":node1_3" function="internal">
        <lane id=":node1_3_0" index="0" speed="3.65" length="2.34" shape="-1.60,110.40 -0.80,109.20 0.00,108.80"/>
    </edge>
    <edge id=":node1_11" function="internal">
        <lane id=":node1_11_0" index="0" speed="9.26" length="12.40" shape="0.00,103.73 1.40,101.40 5.15,99.15 10.40,98.40"/>
    </edge>
    <edge id=":node1_12" function="internal">
        <lane id=":node1_12_0" index="0" speed="3.65" length="2.34" shape="0.00,108.80 0.80,109.20 1.60,110.40"/>
    </edge>
    <edge id=":node1_4" function="internal">
        <lane id=":node1_4_0" index="0" speed="6.51" length="9.03" shape="10.40,104.80 7.95,105.15 6.20,106.20 5.15,107.95 4.80,110.40"/>
    </edge>
    <edge id=":node1_5" function="internal">
        <lane id=":node1_5_0" index="0" speed="9.26" length="19.35" shape="10.40,101.60 5.15,100.85 1.40,98.60 -0.85,94.85 -1.60,89.60"/>
    </edge>
    <edge id=":node1_6" function="internal">
        <lane id=":node1_6_0" index="0" speed="3.65" length="4.67" shape="10.40,101.60 9.20,100.80 8.80,100.00 9.20,99.20 10.40,98.40"/>
    </edge>
    <edge id=":node1_7" function="internal">
        <lane id=":node1_7_0" index="0" speed="6.51" length="9.03" shape="4.80,89.60 5.15,92.05 6.20,93.80 7.95,94.85 10.40,95.20"/>
    </edge>
    <edge id=":node1_8" function="internal">
        <lane id=":node1_8_0" index="0" speed="40.00" length="20.80" shape="4.80,89.60 4.80,110.40"/>
        <lane id=":node1_8_1" index="1" speed="40.00" length="20.80" shape="1.60,89.60 1.60,110.40"/>
    </edge>
    <edge id=":node1_10" function="internal">
        <lane id=":node1_10_0" index="0" speed="3.65" length="2.34" shape="1.60,89.60 0.80,90.80 0.00,91.20"/>
    </edge>
    <edge id=":node1_13" function="internal">
        <lane id=":node1_13_0" index="0" speed="3.65" length="2.34" shape="0.00,91.20 -0.80,90.80 -1.60,89.60"/>
    </edge>
    <edge id=":node10_0" function="internal">
        <lane id=":node10_0_0" index="0" speed="6.51" length="9.03" shape="95.20,410.40 94.85,407.95 93.80,406.20 92.05,405.15 89.60,404.80"/>
    </edge>
    <edge id=":node10_1" function="internal">
        <lane id=":node10_1_0" index="0" speed="40.00" length="20.80" shape="95.20,410.40 95.20,389.60"/>
        <lane id=":node10_1_1" index="1" speed="40.00" length="20.80" shape="98.40,410.40 98.40,389.60"/>
    </edge>
    <edge id=":node10_3" function="internal">
        <lane id=":node10_3_0" index="0" speed="9.26" length="6.96" shape="98.40,410.40 99.15,405.15 100.00,403.73"/>
    </edge>
    <edge id=":node10_4" function="internal">
        <lane id=":node10_4_0" index="0" speed="3.65" length="2.34" shape="98.40,410.40 99.20,409.20 100.00,408.80"/>
    </edge>
    <edge id=":node10_20" function="internal">
        <lane id=":node10_20_0" index="0" speed="9.26" length="12.40" shape="100.00,403.73 101.40,401.40 105.15,399.15 110.40,398.40"/>
    </edge>
    <edge id=":node10_21" function="internal">
        <lane id=":node10_21_0" index="0" speed="3.65" length="2.34" shape="100.00,408.80 100.80,409.20 101.60,410.40"/>
    </edge>
    <edge id=":node10_5" function="internal">
        <lane id=":node10_5_0" index="0" speed="6.51" length="9.03" shape="110.40,404.80 107.95,405.15 106.20,406.20 105.15,407.95 104.80,410.40"/>
    </edge>
    <edge id=":node10_6" function="internal">
        <lane id=":node10_6_0" index="0" speed="40.00" length="20.80" shape="110.40,404.80 89.60,404.80"/>
        <lane id=":node10_6_1" index="1" speed="40.00" length="20.80" shape="110.40,401.60 89.60,401.60"/>
    </edge>
    <edge id=":node10_8" function="internal">
        <lane id=":node10_8_0" index="0" speed="9.26" length="19.35" shape="110.40,401.60 105.15,400.85 101.40,398.60 99.15,394.85 98.40,389.60"/>
    </edge>
    <edge id=":node10_9" function="internal">
        <lane id=":node10_9_0" index="0" speed="3.65" length="4.67" shape="110.40,401.60 109.20,400.80 108.80,400.00 109.20,399.20 110.40,398.40"/>
    </edge>
    <edge id=":node10_10" function="internal">
        <lane id=":node10_10_0" index="0" speed="6.51" length="9.03" shape="104.80,389.60 105.15,392.05 106.20,393.80 107.95,394.85 110.40,395.20"/>
    </edge>
    <edge id=":node10_11" function="internal">
        <lane id=":node10_11_0" index="0" speed="40.00" length="20.80" shape="104.80,389.60 104.80,410.40"/>
        <lane id=":node10_11_1" index="1" speed="40.00" length="20.80" shape="101.60,389.60 101.60,410.40"/>
    </edge>
    <edge id=":node10_13" function="internal">
        <lane id=":node10_13_0" index="0" speed="9.26" length="6.96" shape="101.60,389.60 100.85,394.85 100.00,396.27"/>
    </edge>
    <edge id=":node10_14" function="internal">
        <lane id=":node10_14_0" index="0" speed="3.65" length="2.34" shape="101.60,389.60 100.80,390.80 100.00,391.20"/>
    </edge>
    <edge id=":node10_22" function="internal">
        <lane id=":node10_22_0" index="0" speed="9.26" length="12.40" shape="100.00,396.27 98.60,398.60 94.85,400.85 89.60,401.60"/>
    </edge>
    <edge id=":node10_23" function="internal">
        <lane id=":node10_23_0" index="0" speed="3.65" length="2.34" shape="100.00,391.20 99.20,390.80 98.40,389.60"/>
    </edge>
    <edge id=":node10_15" function="internal">
        <lane id=":node10_15_0" index="0" speed="6.51" length="9.03" shape="89.60,395.20 92.05,394.85 93.80,393.80 94.85,392.05 95.20,389.60"/>
    </edge>
    <edge id=":node10_16" function="internal">
        <lane id=":node10_16_0" index="0" speed="40.00" length="20.80" shape="89.60,395.20 110.40,395.20"/>
        <lane id=":node10_16_1" index="1" speed="40.00" length="20.80" shape="89.60,398.40 110.40,398.40"/>
    </edge>
    <edge id=":node10_18" function="internal">
        <lane id=":node10_18_0" index="0" speed="9.26" length="19.35" shape="89.60,398.40 94.85,399.15 98.60,401.40 100.85,405.15 101.60,410.40"/>
    </edge>
    <edge id=":node10_19" function="internal">
        <lane id=":node10_19_0" index="0" speed="3.65" length="4.67" shape="89.60,398.40 90.80,399.20 91.20,400.00 90.80,400.80 89.60,401.60"/>
    </edge>
    <edge id=":node11_0" function="internal">
        <lane id=":node11_0_0" index="0" speed="40.00" length="20.80" shape="110.40,504.80 89.60,504.80"/>
        <lane id=":node11_0_1" index="1" speed="40.00" length="20.80" shape="110.40,501.60 89.60,501.60"/>
    </edge>
    <edge id=":node11_2" function="internal">
        <lane id=":node11_2_0" index="0" speed="9.26" length="6.96" shape="110.40,501.60 105.15,500.85 103.73,500.00"/>
    </edge>
    <edge id=":node11_3" function="internal">
        <lane id=":node11_3_0" index="0" speed="3.65" length="2.34" shape="110.40,501.60 109.20,500.80 108.80,500.00"/>
    </edge>
    <edge id=":node11_11" function="internal">
        <lane id=":node11_11_0" index="0" speed="9.26" length="12.40" shape="103.73,500.00 101.40,498.60 99.15,494.85 98.40,489.60"/>
    </edge>
    <edge id=":node11_12" function="internal">
        <lane id=":node11_12_0" index="0" speed="3.65" length="2.34" shape="108.80,500.00 109.20,499.20 110.40,498.40"/>
    </edge>
    <edge id=":node11_4" function="internal">
        <lane id=":node11_4_0" index="0" speed="6.51" length="9.03" shape="104.80,489.60 105.15,492.05 106.20,493.80 107.95,494.85 110.40,495.20"/>
    </edge>
    <edge id=":node11_5" function="internal">
        <lane id=":node11_5_0" index="0" speed="9.26" length="19.35" shape="101.60,489.60 100.85,494.85 98.60,498.60 94.85,500.85 89.60,501.60"/>
    </edge>
    <edge id=":node11_6" function="internal">
        <lane id=":node11_6_0" index="0" speed="3.65" length="4.67" shape="101.60,489.60 100.80,490.80 100.00,491.20 99.20,490.80 98.40,489.60"/>
    </edge>
    <edge id=":node11_7" function="internal">
        <lane id=":node11_7_0" index="0" speed="6.51" length="9.03" shape="89.60,495.20 92.05,494.85 93.80,493.80 94.85,492.05 95.20,489.60"/>
    </edge>
    <edge id=":node11_8" function="internal">
        <lane id=":node11_8_0" index="0" speed="40.00" length="20.80" shape="89.60,495.20 110.40,495.20"/>
        <lane id=":node11_8_1" index="1" speed="40.00" length="20.80" shape="89.60,498.40 110.40,498.40"/>
    </edge>
    <edge id=":node11_10" function="internal">
        <lane id=":node11_10_0" index="0" speed="3.65" length="2.34" shape="89.60,498.40 90.80,499.20 91.20,500.00"/>
    </edge>
    <edge id=":node11_13" function="internal">
        <lane id=":node11_13_0" index="0" speed="3.65" length="2.34" shape="91.20,500.00 90.80,500.80 89.60,501.60"/>
    </edge>
    <edge id=":node12_0" function="internal">
        <lane id=":node12_0_0" index="0" speed="6.51" length="9.03" shape="195.20,10.40 194.85,7.95 193.80,6.20 192.05,5.15 189.60,4.80"/>
    </edge>
    <edge id=":node12_1" function="internal">
        <lane id=":node12_1_0" index="0" speed="9.26" length="19.35" shape="198.40,10.40 199.15,5.15 201.40,1.40 205.15,-0.85 210.40,-1.60"/>
    </edge>
    <edge id=":node12_2" function="internal">
        <lane id=":node12_2_0" index="0" speed="3.65" length="4.67" shape="198.40,10.40 199.20,9.20 200.00,8.80 200.80,9.20 201.60,10.40"/>
    </edge>
    <edge id=":node12_3" function="internal">
        <lane id=":node12_3_0" index="0" speed="6.51" length="9.03" shape="210.40,4.80 207.95,5.15 206.20,6.20 205.15,7.95 204.80,10.40"/>
    </edge>
    <edge id=":node12_4" function="internal">
        <lane id=":node12_4_0" index="0" speed="40.00" length="20.80" shape="210.40,4.80 189.60,4.80"/>
        <lane id=":node12_4_1" index="1" speed="40.00" length="20.80" shape="210.40,1.60 189.60,1.60"/>
    </edge>
    <edge id=":node12_6" function="internal">
        <lane id=":node12_6_0" index="0" speed="3.65" length="2.34" shape="210.40,1.60 209.20,0.80 208.80,0.00"/>
    </edge>
    <edge id=":node12_11" function="internal">
        <lane id=":node12_11_0" index="0" speed="3.65" length="2.34" shape="208.80,0.00 209.20,-0.80 210.40,-1.60"/>
    </edge>
    <edge id=":node12_7" function="internal">
        <lane id=":node12_7_0" index="0" speed="40.00" length="20.80" shape="189.60,-4.80 210.40,-4.80"/>
        <lane id=":node12_7_1" index="1" speed="40.00" length="20.80" shape="189.60,-1.60 210.40,-1.60"/>
    </edge>
    <edge id=":node12_9" function="internal">
        <lane id=":node12_9_0" index="0" speed="9.26" length="6.96" shape="189.60,-1.60 194.85,-0.85 196.27,-0.00"/>
    </edge>
    <edge id=":node12_10" function="internal">
        <lane id=":node12_10_0" index="0" speed="3.65" length="2.34" shape="189.60,-1.60 190.80,-0.80 191.20,0.00"/>
    </edge>
    <edge id=":node12_12" function="internal">
        <lane id=":node12_12_0" index="0" speed="9.26" length="12.40" shape="196.27,-0.00 198.60,1.40 200.85,5.15 201.60,10.40"/>
    </edge>
    <edge id=":node12_13" function="internal">
        <lane id=":node12_13_0" index="0" speed="3.65" length="2.34" shape="191.20,0.00 190.80,0.80 189.60,1.60"/>
    </edge>
    <edge id=":node13_0" function="internal">
        <lane id=":node13_0_0" index="0" speed="6.51" length="9.03" shape="195.20,110.40 194.85,107.95 193.80,106.20 192.05,105.15 189.60,104.80"/>
    </edge>
    <edge id=":node13_1" function="internal">
        <lane id=":node13_1_0" index="0" speed="40.00" length="20.80" shape="195.20,110.40 195.20,89.60"/>
        <lane id=":node13_1_1" index="1" speed="40.00" length="20.80" shape="198.40,110.40 198.40,89.60"/>
    </edge>
    <edge id=":node13_3" function="internal">
        <lane id=":node13_3_0" index="0" speed="9.26" length="6.96" shape="198.40,110.40 199.15,105.15 200.00,103.73"/>
    </edge>
    <edge id=":node13_4" function="internal">
        <lane id=":node13_4_0" index="0" speed="3.65" length="2.34" shape="198.40,110.40 199.20,109.20 200.00,108.80"/>
    </edge>
    <edge id=":node13_20" function="internal">
        <lane id=":node13_20_0" index="0" speed="9.26" length="12.40" shape="200.00,103.73 201.40,101.40 205.15,99.15 210.40,98.40"/>
    </edge>
    <edge id=":node13_21" function="internal">
        <lane id=":node13_21_0" index="0" speed="3.65" length="2.34" shape="200.00,108.80 200.80,109.20 201.60,110.40"/>
    </edge>
    <edge id=":node13_5" function="internal">
        <lane id=":node13_5_0" index="0" speed="6.51" length="9.03" shape="210.40,104.80 207.95,105.15 206.20,106.20 205.15,107.95 204.80,110.40"/>
    </edge>
    <edge id=":node13_6" function="internal">
        <lane id=":node13_6_0" index="0" speed="40.00" length="20.80" shape="210.40,104.80 189.60,104.80"/>
        <lane id=":node13_6_1" index="1" speed="40.00" length="20.80" shape="210.40,101.60 189.60,101.60"/>
    </edge>
    <edge id=":node13_8" function="internal">
        <lane id=":node13_8_0" index="0" speed="9.26" length="19.35" shape="210.40,101.60 205.15,100.85 201.40,98.60 199.15,94.85 198.40,89.60"/>
    </edge>
    <edge id=":node13_9" function="internal">
        <lane id=":node13_9_0" index="0" speed="3.65" length="4.67" shape="210.40,101.60 209.20,100.80 208.80,100.00 209.20,99.20 210.40,98.40"/>
    </edge>
    <edge id=":node13_10" function="internal">
        <lane id=":node13_10_0" index="0" speed="6.51" length="9.03" shape="204.80,89.60 205.15,92.05 206.20,93.80 207.95,94.85 210.40,95.20"/>
    </edge>
    <edge id=":node13_11" function="internal">
        <lane id=":node13_11_0" index="0" speed="40.00" length="20.80" shape="204.80,89.60 204.80,110.40"/>
        <lane id=":node13_11_1" index="1" speed="40.00" length="20.80" shape="201.60,89.60 201.60,110.40"/>
    </edge>
    <edge id=":node13_13" function="internal">
        <lane id=":node13_13_0" index="0" speed="9.26" length="6.96" shape="201.60,89.60 200.85,94.85 200.00,96.27"/>
    </edge>
    <edge id=":node13_14" function="internal">
        <lane id=":node13_14_0" index="0" speed="3.65" length="2.34" shape="201.60,89.60 200.80,90.80 200.00,91.20"/>
    </edge>
    <edge id=":node13_22" function="internal">
        <lane id=":node13_22_0" index="0" speed="9.26" length="12.40" shape="200.00,96.27 198.60,98.60 194.85,100.85 189.60,101.60"/>
    </edge>
    <edge id=":node13_23" function="internal">
        <lane id=":node13_23_0" index="0" speed="3.65" length="2.34" shape="200.00,91.20 199.20,90.80 198.40,89.60"/>
    </edge>
    <edge id=":node13_15" function="internal">
        <lane id=":node13_15_0" index="0" speed="6.51" length="9.03" shape="189.60,95.20 192.05,94.85 193.80,93.80 194.85,92.05 195.20,89.60"/>
    </edge>
    <edge id=":node13_16" function="internal">
        <lane id=":node13_16_0" index="0" speed="40.00" length="20.80" shape="189.60,95.20 210.40,95.20"/>
        <lane id=":node13_16_1" index="1" speed="40.00" length="20.80" shape="189.60,98.40 210.40,98.40"/>
    </edge>
    <edge id=":node13_18" function="internal">
        <lane id=":node13_18_0" index="0" speed="9.26" length="19.35" shape="189.60,98.40 194.85,99.15 198.60,101.40 200.85,105.15 201.60,110.40"/>
    </edge>
    <edge id=":node13_19" function="internal">
        <lane id=":node13_19_0" index="0" speed="3.65" length="4.67" shape="189.60,98.40 190.80,99.20 191.20,100.00 190.80,100.80 189.60,101.60"/>
    </edge>
    <edge id=":node14_0" function="internal">
        <lane id=":node14_0_0" index="0" speed="6.51" length="9.03" shape="195.20,210.40 194.85,207.95 193.80,206.20 192.05,205.15 189.60,204.80"/>
    </edge>
    <edge id=":node14_1" function="internal">
        <lane id=":node14_1_0" index="0" speed="40.00" length="20.80" shape="195.20,210.40 195.20,189.60"/>
        <lane id=":node14_1_1" index="1" speed="40.00" length="20.80" shape="198.40,210.40 198.40,189.60"/>
    </edge>
    <edge id=":node14_3" function="internal">
        <lane id=":node14_3_0" index="0" speed="9.26" length="6.96" shape="198.40,210.40 199.15,205.15 200.00,203.73"/>
    </edge>
    <edge id=":node14_4" function="internal">
        <lane id=":node14_4_0" index="0" speed="3.65" length="2.34" shape="198.40,210.40 199.20,209.20 200.00,208.80"/>
    </edge>
    <edge id=":node14_20" function="internal">
        <lane id=":node14_20_0" index="0" speed="9.26" length="12.40" shape="200.00,203.73 201.40,201.40 205.15,199.15 210.40,198.40"/>
    </edge>
    <edge id=":node14_21" function="internal">
        <lane id=":node14_21_0" index="0" speed="3.65" length="2.34" shape="200.00,208.80 200.80,209.20 201.60,210.40"/>
    </edge>
    <edge id=":node14_5" function="internal">
        <lane id=":node14_5_0" index="0" speed="6.51" length="9.03" shape="210.40,204.80 207.95,205.15 206.20,206.20 205.15,207.95 204.80,210.40"/>
    </edge>
    <edge id=":node14_6" function="internal">
        <lane id=":node14_6_0" index="0" speed="40.00" length="20.80" shape="210.40,204.80 189.60,204.80"/>
        <lane id=":node14_6_1" index="1" speed="40.00" length="20.80" shape="210.40,201.60 189.60,201.60"/>
    </edge>
    <edge id=":node14_8" function="internal">
        <lane id=":node14_8_0" index="0" speed="9.26" length="19.35" shape="210.40,201.60 205.15,200.85 201.40,198.60 199.15,194.85 198.40,189.60"/>
    </edge>
    <edge id=":node14_9" function="internal">
        <lane id=":node14_9_0" index="0" speed="3.65" length="4.67" shape="210.40,201.60 209.20,200.80 208.80,200.00 209.20,199.20 210.40,198.40"/>
    </edge>
    <edge id=":node14_10" function="internal">
        <lane id=":node14_10_0" index="0" speed="6.51" length="9.03" shape="204.80,189.60 205.15,192.05 206.20,193.80 207.95,194.85 210.40,195.20"/>
    </edge>
    <edge id=":node14_11" function="internal">
        <lane id=":node14_11_0" index="0" speed="40.00" length="20.80" shape="204.80,189.60 204.80,210.40"/>
        <lane id=":node14_11_1" index="1" speed="40.00" length="20.80" shape="201.60,189.60 201.60,210.40"/>
    </edge>
    <edge id=":node14_13" function="internal">
        <lane id=":node14_13_0" index="0" speed="9.26" length="6.96" shape="201.60,189.60 200.85,194.85 200.00,196.27"/>
    </edge>
    <edge id=":node14_14" function="internal">
        <lane id=":node14_14_0" index="0" speed="3.65" length="2.34" shape="201.60,189.60 200.80,190.80 200.00,191.20"/>
    </edge>
    <edge id=":node14_22" function="internal">
        <lane id=":node14_22_0" index="0" speed="9.26" length="12.40" shape="200.00,196.27 198.60,198.60 194.85,200.85 189.60,201.60"/>
    </edge>
    <edge id=":node14_23" function="internal">
        <lane id=":node14_23_0" index="0" speed="3.65" length="2.34" shape="200.00,191.20 199.20,190.80 198.40,189.60"/>
    </edge>
    <edge id=":node14_15" function="internal">
        <lane id=":node14_15_0" index="0" speed="6.51" length="9.03" shape="189.60,195.20 192.05,194.85 193.80,193.80 194.85,192.05 195.20,189.60"/>
    </edge>
    <edge id=":node14_16" function="internal">
        <lane id=":node14_16_0" index="0" speed="40.00" length="20.80" shape="189.60,195.20 210.40,195.20"/>
        <lane id=":node14_16_1" index="1" speed="40.00" length="20.80" shape="189.60,198.40 210.40,198.40"/>
    </edge>
    <edge id=":node14_18" function="internal">
        <lane id=":node14_18_0" index="0" speed="9.26" length="19.35" shape="189.60,198.40 194.85,199.15 198.60,201.40 200.85,205.15 201.60,210.40"/>
    </edge>
    <edge id=":node14_19" function="internal">
        <lane id=":node14_19_0" index="0" speed="3.65" length="4.67" shape="189.60,198.40 190.80,199.20 191.20,200.00 190.80,200.80 189.60,201.60"/>
    </edge>
    <edge id=":node15_0" function="internal">
        <lane id=":node15_0_0" index="0" speed="6.51" length="9.03" shape="195.20,310.40 194.85,307.95 193.80,306.20 192.05,305.15 189.60,304.80"/>
    </edge>
    <edge id=":node15_1" function="internal">
        <lane id=":node15_1_0" index="0" speed="40.00" length="20.80" shape="195.20,310.40 195.20,289.60"/>
        <lane id=":node15_1_1" index="1" speed="40.00" length="20.80" shape="198.40,310.40 198.40,289.60"/>
    </edge>
    <edge id=":node15_3" function="internal">
        <lane id=":node15_3_0" index="0" speed="9.26" length="6.96" shape="198.40,310.40 199.15,305.15 200.00,303.73"/>
    </edge>
    <edge id=":node15_4" function="internal">
        <lane id=":node15_4_0" index="0" speed="3.65" length="2.34" shape="198.40,310.40 199.20,309.20 200.00,308.80"/>
    </edge>
    <edge id=":node15_20" function="internal">
        <lane id=":node15_20_0" index="0" speed="9.26" length="12.40" shape="200.00,303.73 201.40,301.40 205.15,299.15 210.40,298.40"/>
    </edge>
    <edge id=":node15_21" function="internal">
        <lane id=":node15_21_0" index="0" speed="3.65" length="2.34" shape="200.00,308.80 200.80,309.20 201.60,310.40"/>
    </edge>
    <edge id=":node15_5" function="internal">
        <lane id=":node15_5_0" index="0" speed="6.51" length="9.03" shape="210.40,304.80 207.95,305.15 206.20,306.20 205.15,307.95 204.80,310.40"/>
    </edge>
    <edge id=":node15_6" function="internal">
        <lane id=":node15_6_0" index="0" speed="40.00" length="20.80" shape="210.40,304.80 189.60,304.80"/>
        <lane id=":node15_6_1" index="1" speed="40.00" length="20.80" shape="210.40,301.60 189.60,301.60"/>
    </edge>
    <edge id=":node15_8" function="internal">
        <lane id=":node15_8_0" index="0" speed="9.26" length="19.35" shape="210.40,301.60 205.15,300.85 201.40,298.60 199.15,294.85 198.40,289.60"/>
    </edge>
    <edge id=":node15_9" function="internal">
        <lane id=":node15_9_0" index="0" speed="3.65" length="4.67" shape="210.40,301.60 209.20,300.80 208.80,300.00 209.20,299.20 210.40,298.40"/>
    </edge>
    <edge id=":node15_10" function="internal">
        <lane id=":node15_10_0" index="0" speed="6.51" length="9.03" shape="204.80,289.60 205.15,292.05 206.20,293.80 207.95,294.85 210.40,295.20"/>
    </edge>
    <edge id=":node15_11" function="internal">
        <lane id=":node15_11_0" index="0" speed="40.00" length="20.80" shape="204.80,289.60 204.80,310.40"/>
        <lane id=":node15_11_1" index="1" speed="40.00" length="20.80" shape="201.60,289.60 201.60,310.40"/>
    </edge>
    <edge id=":node15_13" function="internal">
        <lane id=":node15_13_0" index="0" speed="9.26" length="6.96" shape="201.60,289.60 200.85,294.85 200.00,296.27"/>
    </edge>
    <edge id=":node15_14" function="internal">
        <lane id=":node15_14_0" index="0" speed="3.65" length="2.34" shape="201.60,289.60 200.80,290.80 200.00,291.20"/>
    </edge>
    <edge id=":node15_22" function="internal">
        <lane id=":node15_22_0" index="0" speed="9.26" length="12.40" shape="200.00,296.27 198.60,298.60 194.85,300.85 189.60,301.60"/>
    </edge>
    <edge id=":node15_23" function="internal">
        <lane id=":node15_23_0" index="0" speed="3.65" length="2.34" shape="200.00,291.20 199.20,290.80 198.40,289.60"/>
    </edge>
    <edge id=":node15_15" function="internal">
        <lane id=":node15_15_0" index="0" speed="6.51" length="9.03" shape="189.60,295.20 192.05,294.85 193.80,293.80 194.85,292.05 195.20,289.60"/>
    </edge>
    <edge id=":node15_16" function="internal">
        <lane id=":node15_16_0" index="0" speed="40.00" length="20.80" shape="189.60,295.20 210.40,295.20"/>
        <lane id=":node15_16_1" index="1" speed="40.00" length="20.80" shape="189.60,298.40 210.40,298.40"/>
    </edge>
    <edge id=":node15_18" function="internal">
        <lane id=":node15_18_0" index="0" speed="9.26" length="19.35" shape="189.60,298.40 194.85,299.15 198.60,301.40 200.85,305.15 201.60,310.40"/>
    </edge>
    <edge id=":node15_19" function="internal">
        <lane id=":node15_19_0" index="0" speed="3.65" length="4.67" shape="189.60,298.40 190.80,299.20 191.20,300.00 190.80,300.80 189.60,301.60"/>
    </edge>
    <edge id=":node16_0" function="internal">
        <lane id=":node16_0_0" index="0" speed="6.51" length="9.03" shape="195.20,410.40 194.85,407.95 193.80,406.20 192.05,405.15 189.60,404.80"/>
    </edge>
    <edge id=":node16_1" function="internal">
        <lane id=":node16_1_0" index="0" speed="40.00" length="20.80" shape="195.20,410.40 195.20,389.60"/>
        <lane id=":node16_1_1" index="1" speed="40.00" length="20.80" shape="198.40,410.40 198.40,389.60"/>
    </edge>
    <edge id=":node16_3" function="internal">
        <lane id=":node16_3_0" index="0" speed="9.26" length="6.96" shape="198.40,410.40 199.15,405.15 200.00,403.73"/>
    </edge>
    <edge id=":node16_4" function="internal">
        <lane id=":node16_4_0" index="0" speed="3.65" length="2.34" shape="198.40,410.40 199.20,409.20 200.00,408.80"/>
    </edge>
    <edge id=":node16_20" function="internal">
        <lane id=":node16_20_0" index="0" speed="9.26" length="12.40" shape="200.00,403.73 201.40,401.40 205.15,399.15 210.40,398.40"/>
    </edge>
    <edge id=":node16_21" function="internal">
        <lane id=":node16_21_0" index="0" speed="3.65" length="2.34" shape="200.00,408.80 200.80,409.20 201.60,410.40"/>
    </edge>
    <edge id=":node16_5" function="internal">
        <lane id=":node16_5_0" index="0" speed="6.51" length="9.03" shape="210.40,404.80 207.95,405.15 206.20,406.20 205.15,407.95 204.80,410.40"/>
    </edge>
    <edge id=":node16_6" function="internal">
        <lane id=":node16_6_0" index="0" speed="40.00" length="20.80" shape="210.40,404.80 189.60,404.80"/>
        <lane id=":node16_6_1" index="1" speed="40.00" length="20.80" shape="210.40,401.60 189.60,401.60"/>
    </edge>
    <edge id=":node16_8" function="internal">
        <lane id=":node16_8_0" index="0" speed="9.26" length="19.35" shape="210.40,401.60 205.15,400.85 201.40,398.60 199.15,394.85 198.40,389.60"/>
    </edge>
    <edge id=":node16_9" function="internal">
        <lane id=":node16_9_0" index="0" speed="3.65" length="4.67" shape="210.40,401.60 209.20,400.80 208.80,400.00 209.20,399.20 210.40,398.40"/>
    </edge>
    <edge id=":node16_10" function="internal">
        <lane id=":node16_10_0" index="0" speed="6.51" length="9.03" shape="204.80,389.60 205.15,392.05 206.20,393.80 207.95,394.85 210.40,395.20"/>
    </edge>
    <edge id=":node16_11" function="internal">
        <lane id=":node16_11_0" index="0" speed="40.00" length="20.80" shape="204.80,389.60 204.80,410.40"/>
        <lane id=":node16_11_1" index="1" speed="40.00" length="20.80" shape="201.60,389.60 201.60,410.40"/>
    </edge>
    <edge id=":node16_13" function="internal">
        <lane id=":node16_13_0" index="0" speed="9.26" length="6.96" shape="201.60,389.60 200.85,394.85 200.00,396.27"/>
    </edge>
    <edge id=":node16_14" function="internal">
        <lane id=":node16_14_0" index="0" speed="3.65" length="2.34" shape="201.60,389.60 200.80,390.80 200.00,391.20"/>
    </edge>
    <edge id=":node16_22" function="internal">
        <lane id=":node16_22_0" index="0" speed="9.26" length="12.40" shape="200.00,396.27 198.60,398.60 194.85,400.85 189.60,401.60"/>
    </edge>
    <edge id=":node16_23" function="internal">
        <lane id=":node16_23_0" index="0" speed="3.65" length="2.34" shape="200.00,391.20 199.20,390.80 198.40,389.60"/>
    </edge>
    <edge id=":node16_15" function="internal">
        <lane id=":node16_15_0" index="0" speed="6.51" length="9.03" shape="189.60,395.20 192.05,394.85 193.80,393.80 194.85,392.05 195.20,389.60"/>
    </edge>
    <edge id=":node16_16" function="internal">
        <lane id=":node16_16_0" index="0" speed="40.00" length="20.80" shape="189.60,395.20 210.40,395.20"/>
        <lane id=":node16_16_1" index="1" speed="40.00" length="20.80" shape="189.60,398.40 210.40,398.40"/>
    </edge>
    <edge id=":node16_18" function="internal">
        <lane id=":node16_18_0" index="0" speed="9.26" length="19.35" shape="189.60,398.40 194.85,399.15 198.60,401.40 200.85,405.15 201.60,410.40"/>
    </edge>
    <edge id=":node16_19" function="internal">
        <lane id=":node16_19_0" index="0" speed="3.65" length="4.67" shape="189.60,398.40 190.80,399.20 191.20,400.00 190.80,400.80 189.60,401.60"/>
    </edge>
    <edge id=":node17_0" function="internal">
        <lane id=":node17_0_0" index="0" speed="40.00" length="20.80" shape="210.40,504.80 189.60,504.80"/>
        <lane id=":node17_0_1" index="1" speed="40.00" length="20.80" shape="210.40,501.60 189.60,501.60"/>