<edges> 
<edge id="edge0_0" from="node0" to="node6" priority="75" numLanes="2" speed="40" /> 
<edge id="edge0_1" from="node0" to="node1" priority="75" numLanes="2" speed="40" /> 
<edge id="edge1_0" from="node1" to="node7" priority="75" numLanes="2" speed="40" /> 
<edge id="edge1_1" from="node1" to="node0" priority="75" numLanes="2" speed="40" /> 
<edge id="edge1_2" from="node1" to="node2" priority="75" numLanes="2" speed="40" /> 
<edge id="edge2_0" from="node2" to="node8" priority="75" numLanes="2" speed="40" /> 
<edge id="edge2_1" from="node2" to="node1" priority="75" numLanes="2" speed="40" /> 
<edge id="edge2_2" from="node2" to="node3" priority="75" numLanes="2" speed="40" /> 
<edge id="edge3_0" from="node3" to="node9" priority="75" numLanes="2" speed="40" /> 
<edge id="edge3_1" from="node3" to="node2" priority="75" numLanes="2" speed="40" /> 
<edge id="edge3_2" from="node3" to="node4" priority="75" numLanes="2" speed="40" /> 
<edge id="edge4_0" from="node4" to="node10" priority="75" numLanes="2" speed="40" /> 
<edge id="edge4_1" from="node4" to="node3" priority="75" numLanes="2" speed="40" /> 
<edge id="edge4_2" from="node4" to="node5" priority="75" numLanes="2" speed="40" /> 
<edge id="edge5_0" from="node5" to="node11" priority="75" numLanes="2" speed="40" /> 
<edge id="edge5_1" from="node5" to="node4" priority="75" numLanes="2" speed="40" /> 
<edge id="edge6_0" from="node6" to="node0" priority="75" numLanes="2" speed="40" /> 
<edge id="edge6_1" from="node6" to="node12" priority="75" numLanes="2" speed="40" /> 
<edge id="edge6_2" from="node6" to="node7" priority="75" numLanes="2" speed="40" /> 
<edge id="edge7_0" from="node7" to="node1" priority="75" numLanes="2" speed="40" /> 
<edge id="edge7_1" from="node7" to="node13" priority="75" numLanes="2" speed="40" /> 
<edge id="edge7_2" from="node7" to="node6" priority="75" numLanes="2" speed="40" /> 
<edge id="edge7_3" from="node7" to="node8" priority="75" numLanes="2" speed="40" /> 
<edge id="edge8_0" from="node8" to="node2" priority="75" numLanes="2" speed="40" /> 
<edge id="edge8_1" from="node8" to="node14" priority="75" numLanes="2" speed="40" /> 
<edge id="edge8_2" from="node8" to="node7" priority="75" numLanes="2" speed="40" /> 
<edge id="edge8_3" from="node8" to="node9" priority="75" numLanes="2" speed="40" /> 
<edge id="edge9_0" from="node9" to="node3" priority="75" numLanes="2" speed="40" /> 
<edge id="edge9_1" from="node9" to="node15" priority="75" numLanes="2" speed="40" /> 
<edge id="edge9_2" from="node9" to="node8" priority="75" numLanes="2" speed="40" /> 
<edge id="edge9_3" from="node9" to="node10" priority="75" numLanes="2" speed="40" /> 
<edge id="edge10_0" from="node10" to="node4" priority="75" numLanes="2" speed="40" /> 
<edge id="edge10_1" from="node10" to="node16" priority="75" numLanes="2" speed="40" /> 
<edge id="edge10_2" from="node10" to="node9" priority="75" numLanes="2" speed="40" /> 
<edge id="edge10_3" from="node10" to="node11" priority="75" numLanes="2" speed="40" /> 
<edge id="edge11_0" from="node11" to="node5" priority="75" numLanes="2" speed="40" /> 
<edge id="edge11_1" from="node11" to="node17" priority="75" numLanes="2" speed="40" /> 
<edge id="edge11_2" from="node11" to="node10" priority="75" numLanes="2" speed="40" /> 
<edge id="edge12_0" from="node12" to="node6" priority="75" numLanes="2" speed="40" /> 
<edge id="edge12_1" from="node12" to="node18" priority="75" numLanes="2" speed="40" /> 
<edge id="edge12_2" from="node12" to="node13" priority="75" numLanes="2" speed="40" /> 
<edge id="edge13_0" from="node13" to="node7" priority="75" numLanes="2" speed="40" /> 
<edge id="edge13_1" from="node13" to="node19" priority="75" numLanes="2" speed="40" /> 
<edge id="edge13_2" from="node13" to="node12" priority="75" numLanes="2" speed="40" /> 
<edge id="edge13_3" from="node13" to="node14" priority="75" numLanes="2" speed="40" /> 
<edge id="edge14_0" from="node14" to="node8" priority="75" numLanes="2" speed="40" /> 
<edge id="edge14_1" from="node14" to="node20" priority="75" numLanes="2" speed="40" /> 
<edge id="edge14_2" from="node14" to="node13" priority="75" numLanes="2" speed="40" /> 
<edge id="edge14_3" from="node14" to="node15" priority="75" numLanes="2" speed="40" /> 
<edge id="edge15_0" from="node15" to="node9" priority="75" numLanes="2" speed="40" /> 
<edge id="edge15_1" from="node15" to="node21" priority="75" numLanes="2" speed="40" /> 
<edge id="edge15_2" from="node15" to="node14" priority="75" numLanes="2" speed="40" /> 
<edge id="edge15_3" from="node15" to="node16" priority="75" numLanes="2" speed="40" /> 
<edge id="edge16_0" from="node16" to="node10" priority="75" numLanes="2" speed="40" /> 
<edge id="edge16_1" from="node16" to="node22" priority="75" numLanes="2" speed="40" /> 
<edge id="edge16_2" from="node16" to="node15" priority="75" numLanes="2" speed="40" /> 
<edge id="edge16_3" from="node16" to="node17" priority="75" numLanes="2" speed="40" /> 
<edge id="edge17_0" from="node17" to="node11" priority="75" numLanes="2" speed="40" /> 
<edge id="edge17_1" from="node17" to="node23" priority="75" numLanes="2" speed="40" /> 
<edge id="edge17_2" from="node17" to="node16" priority="75" numLanes="2" speed="40" /> 
<edge id="edge18_0" from="node18" to="node12" priority="75" numLanes="2" speed="40" /> 
<edge id="edge18_1" from="node18" to="node24" priority="75" numLanes="2" speed="40" /> 
<edge id="edge18_2" from="node18" to="node19" priority="75" numLanes="2" speed="40" /> 
<edge id="edge19_0" from="node19" to="node13" priority="75" numLanes="2" speed="40" /> 
<edge id="edge19_1" from="node19" to="node25" priority="75" numLanes="2" speed="40" /> 
<edge id="edge19_2" from="node19" to="node18" priority="75" numLanes="2" speed="40" /> 
<edge id="edge19_3" from="node19" to="node20" priority="75" numLanes="2" speed="40" /> 
<edge id="edge20_0" from="node20" to="node14" priority="75" numLanes="2" speed="40" /> 
<edge id="edge20_1" from="node20" to="node26" priority="75" numLanes="2" speed="40" /> 
<edge id="edge20_2" from="node20" to="node19" priority="75" numLanes="2" speed="40" /> 
<edge id="edge20_3" from="node20" to="node21" priority="75" numLanes="2" speed="40" /> 
<edge id="edge21_0" from="node21" to="node15" priority="75" numLanes="2" speed="40" /> 
<edge id="edge21_1" from="node21" to="node27" priority="75" numLanes="2" speed="40" /> 
<edge id="edge21_2" from="node21" to="node20" priority="75" numLanes="2" speed="40" /> 
<edge id="edge21_3" from="node21" to="node22" priority="75" numLanes="2" speed="40" /> 
<edge id="edge22_0" from="node22" to="node16" priority="75" numLanes="2" speed="40" /> 
<edge id="edge22_1" from="node22" to="node28" priority="75" numLanes="2" speed="40" /> 
<edge id="edge22_2" from="node22" to="node21" priority="75" numLanes="2" speed="40" /> 
<edge id="edge22_3" from="node22" to="node23" priority="75" numLanes="2" speed="40" /> 
<edge id="edge23_0" from="node23" to="node17" priority="75" numLanes="2" speed="40" /> 
<edge id="edge23_1" from="node23" to="node29" priority="75" numLanes="2" speed="40" /> 
<edge id="edge23_2" from="node23" to="node22" priority="75" numLanes="2" speed="40" /> 
<edge id="edge24_0" from="node24" to="node18" priority="75" numLanes="2" speed="40" /> 
<edge id="edge24_1" from="node24" to="node30" priority="75" numLanes="2" speed="40" /> 
<edge id="edge24_2" from="node24" to="node25" priority="75" numLanes="2" speed="40" /> 
<edge id="edge25_0" from="node25" to="node19" priority="75" numLanes="2" speed="40" /> 
<edge id="edge25_1" from="node25" to="node31" priority="75" numLanes="2" speed="40" /> 
<edge id="edge25_2" from="node25" to="node24" priority="75" numLanes="2" speed="40" /> 
<edge id="edge25_3" from="node25" to="node26" priority="75" numLanes="2" speed="40" /> 
<edge id="edge26_0" from="node26" to="node20" priority="75" numLanes="2" speed="40" /> 
<edge id="edge26_1" from="node26" to="node32" priority="75" numLanes="2" speed="40" /> 
<edge id="edge26_2" from="node26" to="node25" priority="75" numLanes="2" speed="40" /> 
<edge id="edge26_3" from="node26" to="node27" priority="75" numLanes="2" speed="40" /> 
<edge id="edge27_0" from="node27" to="node21" priority="75" numLanes="2" speed="40" /> 
<edge id="edge27_1" from="node27" to="node33" priority="75" numLanes="2" speed="40" /> 
<edge id="edge27_2" from="node27" to="node26" priority="75" numLanes="2" speed="40" /> 
<edge id="edge27_3" from="node27" to="node28" priority="75" numLanes="2" speed="40" /> 
<edge id="edge28_0" from="node28" to="node22" priority="75" numLanes="2" speed="40" /> 
<edge id="edge28_1" from="node28" to="node34" priority="75" numLanes="2" speed="40" /> 
<edge id="edge28_2" from="node28" to="node27" priority="75" numLanes="2" speed="40" /> 
<edge id="edge28_3" from="node28" to="node29" priority="75" numLanes="2" speed="40" /> 
<edge id="edge29_0" from="node29" to="node23" priority="75" numLanes="2" speed="40" /> 
<edge id="edge29_1" from="node29" to="node35" priority="75" numLanes="2" speed="40" /> 
<edge id="edge29_2" from="node29" to="node28" priority="75" numLanes="2" speed="40" /> 
<edge id="edge30_0" from="node30" to="node24" priority="75" numLanes="2" speed="40" /> 
<edge id="edge30_1" from="node30" to="node31" priority="75" numLanes="2" speed="40" /> 
<edge id="edge31_0" from="node31" to="node25" priority="75" numLanes="2" speed="40" /> 
<edge id="edge31_1" from="node31" to="node30" priority="75" numLanes="2" speed="40" /> 
<edge id="edge31_2" from="node31" to="node32" priority="75" numLanes="2" speed="40" /> 
<edge id="edge32_0" from="node32" to="node26" priority="75" numLanes="2" speed="40" /> 
<edge id="edge32_1" from="node32" to="node31" priority="75" numLanes="2" speed="40" /> 
<edge id="edge32_2" from="node32" to="node33" priority="75" numLanes="2" speed="40" /> 
<edge id="edge33_0" from="node33" to="node27" priority="75" numLanes="2" speed="40" /> 
<edge id="edge33_1" from="node33" to="node32" priority="75" numLanes="2" speed="40" /> 
<edge id="edge33_2" from="node33" to="node34" priority="75" numLanes="2" speed="40" /> 
<edge id="edge34_0" from="node34" to="node28" priority="75" numLanes="2" speed="40" /> 
<edge id="edge34_1" from="node34" to="node33" priority="75" numLanes="2" speed="40" /> 
<edge id="edge34_2" from="node34" to="node35" priority="75" numLanes="2" speed="40" /> 
<edge id="edge35_0" from="node35" to="node29" priority="75" numLanes="2" speed="40" /> 
<edge id="edge35_1" from="node35" to="node34" priority="75" numLanes="2" speed="40" /> 
</edges> 
