<nodes> <!-- The opening tag -->
  <node id="0" x="0.0" y="0.0" type="traffic_light"/> <!-- def. of node "0" -->
  <node id="1" x="-500.0" y="0.0" type="priority"/> <!-- def. of node "1" -->
  <node id="2" x="+500.0" y="0.0" type="priority"/> <!-- def. of node "2" -->
  <node id="3" x="0.0" y="-500.0" type="priority"/> <!-- def. of node "3" -->
  <node id="4" x="0.0" y="+500.0" type="priority"/> <!-- def. of node "4" -->
  <node id="m1" x="-250.0" y="0.0" type="priority"/> <!-- def. of node "m1" -->
  <node id="m2" x="+250.0" y="0.0" type="priority"/> <!-- def. of node "m2" -->
  <node id="m3" x="0.0" y="-250.0" type="priority"/> <!-- def. of node "m3" -->
  <node id="m4" x="0.0" y="+250.0" type="priority"/> <!-- def. of node "m4" -->
</nodes> <!-- The closing tag -->