<?xml version="1.0" encoding="UTF-8"?>

<!-- generated on 2021-09-23 21:30:01 by Eclipse SUMO jtrrouter Version 1.10.0
<configuration xmlns:xsi="http://www.w3.org/2001/XMLSchema-instance" xsi:noNamespaceSchemaLocation="http://sumo.dlr.de/xsd/jtrrouterConfiguration.xsd">

    <input>
        <net-file value="../hello.net.xml"/>
        <route-files value="hello.trip.xml"/>
        <turn-ratio-files value="hello.turndefs.xml"/>
    </input>

    <output>
        <output-file value="hello.rou.xml"/>
    </output>

    <processing>
        <no-internal-links value="true"/>
        <accept-all-destinations value="true"/>
    </processing>

</configuration>
-->

<routes xmlns:xsi="http://www.w3.org/2001/XMLSchema-instance" xsi:noNamespaceSchemaLocation="http://sumo.dlr.de/xsd/routes_file.xsd">
    <vehicle id="0.0" depart="0.00">
        <route edges="1si 4o 4fi 4si 3o 3fi 3si 1o 1fi"/>
    </vehicle>
    <vehicle id="0.1" depart="3.60">
        <route edges="1si 3o 3fi 3si 1o 1fi"/>
    </vehicle>
    <vehicle id="0.2" depart="7.20">
        <route edges="1si 3o 3fi 3si 2o 2fi 2si 1o 1fi"/>
    </vehicle>
    <vehicle id="0.3" depart="10.80">
        <route edges="1si 3o 3fi 3si 1o 1fi"/>
    </vehicle>
    <vehicle id="0.4" depart="14.40">
        <route edges="1si 4o 4fi 4si 1o 1fi"/>
    </vehicle>
    <vehicle id="0.5" depart="18.00">
        <route edges="1si 2o 2fi 2si 3o 3fi 3si 4o 4fi 4si 1o 1fi"/>
    </vehicle>
    <vehicle id="0.6" depart="21.60">
        <route edges="1si 2o 2fi 2si 1o 1fi"/>
    </vehicle>
    <vehicle id="0.7" depart="25.20">
        <route edges="1si 4o 4fi 4si 2o 2fi 2si 3o 3fi 3si 1o 1fi"/>
    </vehicle>
    <vehicle id="0.8" depart="28.80">
        <route edges="1si 2o 2fi 2si 1o 1fi"/>
    </vehicle>
    <vehicle id="0.9" depart="32.40">
        <route edges="1si 2o 2fi 2si 3o 3fi 3si 1o 1fi"/>
    </vehicle>
    <vehicle id="0.10" depart="36.00">
        <route edges="1si 2o 2fi 2si 4o 4fi 4si 1o 1fi"/>
    </vehicle>
    <vehicle id="0.11" depart="39.60">
        <route edges="1si 2o 2fi 2si 3o 3fi 3si 4o 4fi 4si 1o 1fi"/>
    </vehicle>
    <vehicle id="0.12" depart="43.20">
        <route edges="1si 2o 2fi 2si 1o 1fi"/>
    </vehicle>
    <vehicle id="0.13" depart="46.80">
        <route edges="1si 4o 4fi 4si 3o 3fi 3si 1o 1fi"/>
    </vehicle>
    <vehicle id="0.14" depart="50.40">
        <route edges="1si 3o 3fi 3si 4o 4fi 4si 1o 1fi"/>
    </vehicle>
    <vehicle id="0.15" depart="54.00">
        <route edges="1si 3o 3fi 3si 1o 1fi"/>
    </vehicle>
    <vehicle id="0.16" depart="57.60">
        <route edges="1si 3o 3fi 3si 4o 4fi 4si 1o 1fi"/>
    </vehicle>
    <vehicle id="0.17" depart="61.20">
        <route edges="1si 4o 4fi 4si 2o 2fi 2si 1o 1fi"/>
    </vehicle>
    <vehicle id="0.18" depart="64.80">
        <route edges="1si 2o 2fi 2si 1o 1fi"/>
    </vehicle>
    <vehicle id="0.19" depart="68.40">
        <route edges="1si 2o 2fi 2si 3o 3fi 3si 4o 4fi 4si 1o 1fi"/>
    </vehicle>
    <vehicle id="0.20" depart="72.00">
        <route edges="1si 2o 2fi 2si 1o 1fi"/>
    </vehicle>
    <vehicle id="0.21" depart="75.60">
        <route edges="1si 2o 2fi 2si 4o 4fi 4si 3o 3fi 3si 1o 1fi"/>
    </vehicle>
    <vehicle id="0.22" depart="79.20">
        <route edges="1si 4o 4fi 4si 2o 2fi 2si 1o 1fi"/>
    </vehicle>
    <vehicle id="0.23" depart="82.80">
        <route edges="1si 2o 2fi 2si 3o 3fi 3si 1o 1fi"/>
    </vehicle>
    <vehicle id="0.24" depart="86.40">
        <route edges="1si 3o 3fi 3si 2o 2fi 2si 4o 4fi 4si 1o 1fi"/>
    </vehicle>
    <vehicle id="0.25" depart="90.00">
        <route edges="1si 4o 4fi 4si 1o 1fi"/>
    </vehicle>
    <vehicle id="0.26" depart="93.60">
        <route edges="1si 2o 2fi 2si 3o 3fi 3si 1o 1fi"/>
    </vehicle>
    <vehicle id="0.27" depart="97.20">
        <route edges="1si 3o 3fi 3si 2o 2fi 2si 1o 1fi"/>
    </vehicle>
    <vehicle id="0.28" depart="100.80">
        <route edges="1si 3o 3fi 3si 4o 4fi 4si 1o 1fi"/>
    </vehicle>
    <vehicle id="0.29" depart="104.40">
        <route edges="1si 3o 3fi 3si 2o 2fi 2si 1o 1fi"/>
    </vehicle>
    <vehicle id="0.30" depart="108.00">
        <route edges="1si 4o 4fi 4si 3o 3fi 3si 2o 2fi 2si 1o 1fi"/>
    </vehicle>
    <vehicle id="0.31" depart="111.60">
        <route edges="1si 2o 2fi 2si 1o 1fi"/>
    </vehicle>
    <vehicle id="0.32" depart="115.20">
        <route edges="1si 2o 2fi 2si 4o 4fi 4si 1o 1fi"/>
    </vehicle>
    <vehicle id="0.33" depart="118.80">
        <route edges="1si 3o 3fi 3si 4o 4fi 4si 2o 2fi 2si 1o 1fi"/>
    </vehicle>
    <vehicle id="0.34" depart="122.40">
        <route edges="1si 2o 2fi 2si 3o 3fi 3si 1o 1fi"/>
    </vehicle>
    <vehicle id="0.35" depart="126.00">
        <route edges="1si 2o 2fi 2si 4o 4fi 4si 3o 3fi 3si 1o 1fi"/>
    </vehicle>
    <vehicle id="0.36" depart="129.60">
        <route edges="1si 3o 3fi 3si 4o 4fi 4si 2o 2fi 2si 1o 1fi"/>
    </vehicle>
    <vehicle id="0.37" depart="133.20">
        <route edges="1si 2o 2fi 2si 3o 3fi 3si 1o 1fi"/>
    </vehicle>
    <vehicle id="0.38" depart="136.80">
        <route edges="1si 3o 3fi 3si 4o 4fi 4si 1o 1fi"/>
    </vehicle>
    <vehicle id="0.39" depart="140.40">
        <route edges="1si 4o 4fi 4si 2o 2fi 2si 1o 1fi"/>
    </vehicle>
    <vehicle id="0.40" depart="144.00">
        <route edges="1si 2o 2fi 2si 3o 3fi 3si 4o 4fi 4si 1o 1fi"/>
    </vehicle>
    <vehicle id="0.41" depart="147.60">
        <route edges="1si 3o 3fi 3si 2o 2fi 2si 4o 4fi 4si 1o 1fi"/>
    </vehicle>
    <vehicle id="0.42" depart="151.20">
        <route edges="1si 3o 3fi 3si 2o 2fi 2si 4o 4fi 4si 1o 1fi"/>
    </vehicle>
    <vehicle id="0.43" depart="154.80">
        <route edges="1si 3o 3fi 3si 1o 1fi"/>
    </vehicle>
    <vehicle id="0.44" depart="158.40">
        <route edges="1si 3o 3fi 3si 4o 4fi 4si 1o 1fi"/>
    </vehicle>
    <vehicle id="0.45" depart="162.00">
        <route edges="1si 4o 4fi 4si 2o 2fi 2si 1o 1fi"/>
    </vehicle>
    <vehicle id="0.46" depart="165.60">
        <route edges="1si 3o 3fi 3si 2o 2fi 2si 1o 1fi"/>
    </vehicle>
    <vehicle id="0.47" depart="169.20">
        <route edges="1si 3o 3fi 3si 2o 2fi 2si 1o 1fi"/>
    </vehicle>
    <vehicle id="0.48" depart="172.80">
        <route edges="1si 3o 3fi 3si 2o 2fi 2si 1o 1fi"/>
    </vehicle>
    <vehicle id="0.49" depart="176.40">
        <route edges="1si 2o 2fi 2si 3o 3fi 3si 4o 4fi 4si 1o 1fi"/>
    </vehicle>
    <vehicle id="0.50" depart="180.00">
        <route edges="1si 4o 4fi 4si 1o 1fi"/>
    </vehicle>
    <vehicle id="0.51" depart="183.60">
        <route edges="1si 4o 4fi 4si 2o 2fi 2si 3o 3fi 3si 1o 1fi"/>
    </vehicle>
    <vehicle id="0.52" depart="187.20">
        <route edges="1si 4o 4fi 4si 3o 3fi 3si 1o 1fi"/>
    </vehicle>
    <vehicle id="0.53" depart="190.80">
        <route edges="1si 2o 2fi 2si 1o 1fi"/>
    </vehicle>
    <vehicle id="0.54" depart="194.40">
        <route edges="1si 2o 2fi 2si 1o 1fi"/>
    </vehicle>
    <vehicle id="0.55" depart="198.00">
        <route edges="1si 4o 4fi 4si 2o 2fi 2si 1o 1fi"/>
    </vehicle>
    <vehicle id="0.56" depart="201.60">
        <route edges="1si 3o 3fi 3si 1o 1fi"/>
    </vehicle>
    <vehicle id="0.57" depart="205.20">
        <route edges="1si 2o 2fi 2si 1o 1fi"/>
    </vehicle>
    <vehicle id="0.58" depart="208.80">
        <route edges="1si 2o 2fi 2si 1o 1fi"/>
    </vehicle>
    <vehicle id="0.59" depart="212.40">
        <route edges="1si 4o 4fi 4si 1o 1fi"/>
    </vehicle>
    <vehicle id="0.60" depart="216.00">
        <route edges="1si 4o 4fi 4si 2o 2fi 2si 3o 3fi 3si 1o 1fi"/>
    </vehicle>
    <vehicle id="0.61" depart="219.60">
        <route edges="1si 2o 2fi 2si 3o 3fi 3si 4o 4fi 4si 1o 1fi"/>
    </vehicle>
    <vehicle id="0.62" depart="223.20">
        <route edges="1si 3o 3fi 3si 1o 1fi"/>
    </vehicle>
    <vehicle id="0.63" depart="226.80">
        <route edges="1si 2o 2fi 2si 3o 3fi 3si 1o 1fi"/>
    </vehicle>
    <vehicle id="0.64" depart="230.40">
        <route edges="1si 3o 3fi 3si 1o 1fi"/>
    </vehicle>
    <vehicle id="0.65" depart="234.00">
        <route edges="1si 2o 2fi 2si 3o 3fi 3si 4o 4fi 4si 1o 1fi"/>
    </vehicle>
    <vehicle id="0.66" depart="237.60">
        <route edges="1si 2o 2fi 2si 4o 4fi 4si 1o 1fi"/>
    </vehicle>
    <vehicle id="0.67" depart="241.20">
        <route edges="1si 2o 2fi 2si 4o 4fi 4si 3o 3fi 3si 1o 1fi"/>
    </vehicle>
    <vehicle id="0.68" depart="244.80">
        <route edges="1si 4o 4fi 4si 3o 3fi 3si 1o 1fi"/>
    </vehicle>
    <vehicle id="0.69" depart="248.40">
        <route edges="1si 3o 3fi 3si 4o 4fi 4si 2o 2fi 2si 1o 1fi"/>
    </vehicle>
    <vehicle id="0.70" depart="252.00">
        <route edges="1si 2o 2fi 2si 1o 1fi"/>
    </vehicle>
    <vehicle id="0.71" depart="255.60">
        <route edges="1si 3o 3fi 3si 4o 4fi 4si 1o 1fi"/>
    </vehicle>
    <vehicle id="0.72" depart="259.20">
        <route edges="1si 3o 3fi 3si 4o 4fi 4si 2o 2fi 2si 1o 1fi"/>
    </vehicle>
    <vehicle id="0.73" depart="262.80">
        <route edges="1si 4o 4fi 4si 2o 2fi 2si 3o 3fi 3si 1o 1fi"/>
    </vehicle>
    <vehicle id="0.74" depart="266.40">
        <route edges="1si 4o 4fi 4si 1o 1fi"/>
    </vehicle>
    <vehicle id="0.75" depart="270.00">
        <route edges="1si 2o 2fi 2si 4o 4fi 4si 1o 1fi"/>
    </vehicle>
    <vehicle id="0.76" depart="273.60">
        <route edges="1si 2o 2fi 2si 3o 3fi 3si 4o 4fi 4si 1o 1fi"/>
    </vehicle>
    <vehicle id="0.77" depart="277.20">
        <route edges="1si 3o 3fi 3si 1o 1fi"/>
    </vehicle>
    <vehicle id="0.78" depart="280.80">
        <route edges="1si 2o 2fi 2si 3o 3fi 3si 4o 4fi 4si 1o 1fi"/>
    </vehicle>
    <vehicle id="0.79" depart="284.40">
        <route edges="1si 4o 4fi 4si 2o 2fi 2si 3o 3fi 3si 1o 1fi"/>
    </vehicle>
    <vehicle id="0.80" depart="288.00">
        <route edges="1si 3o 3fi 3si 1o 1fi"/>
    </vehicle>
    <vehicle id="0.81" depart="291.60">
        <route edges="1si 2o 2fi 2si 4o 4fi 4si 1o 1fi"/>
    </vehicle>
    <vehicle id="0.82" depart="295.20">
        <route edges="1si 4o 4fi 4si 2o 2fi 2si 3o 3fi 3si 1o 1fi"/>
    </vehicle>
    <vehicle id="0.83" depart="298.80">
        <route edges="1si 2o 2fi 2si 3o 3fi 3si 1o 1fi"/>
    </vehicle>
    <vehicle id="0.84" depart="302.40">
        <route edges="1si 3o 3fi 3si 2o 2fi 2si 4o 4fi 4si 1o 1fi"/>
    </vehicle>
    <vehicle id="0.85" depart="306.00">
        <route edges="1si 4o 4fi 4si 3o 3fi 3si 2o 2fi 2si 1o 1fi"/>
    </vehicle>
    <vehicle id="0.86" depart="309.60">
        <route edges="1si 3o 3fi 3si 1o 1fi"/>
    </vehicle>
    <vehicle id="0.87" depart="313.20">
        <route edges="1si 2o 2fi 2si 1o 1fi"/>
    </vehicle>
    <vehicle id="0.88" depart="316.80">
        <route edges="1si 2o 2fi 2si 1o 1fi"/>
    </vehicle>
    <vehicle id="0.89" depart="320.40">
        <route edges="1si 2o 2fi 2si 3o 3fi 3si 1o 1fi"/>
    </vehicle>
    <vehicle id="0.90" depart="324.00">
        <route edges="1si 3o 3fi 3si 4o 4fi 4si 1o 1fi"/>
    </vehicle>
    <vehicle id="0.91" depart="327.60">
        <route edges="1si 4o 4fi 4si 1o 1fi"/>
    </vehicle>
    <vehicle id="0.92" depart="331.20">
        <route edges="1si 3o 3fi 3si 4o 4fi 4si 2o 2fi 2si 1o 1fi"/>
    </vehicle>
    <vehicle id="0.93" depart="334.80">
        <route edges="1si 3o 3fi 3si 2o 2fi 2si 1o 1fi"/>
    </vehicle>
    <vehicle id="0.94" depart="338.40">
        <route edges="1si 2o 2fi 2si 3o 3fi 3si 1o 1fi"/>
    </vehicle>
    <vehicle id="0.95" depart="342.00">
        <route edges="1si 2o 2fi 2si 3o 3fi 3si 1o 1fi"/>
    </vehicle>
    <vehicle id="0.96" depart="345.60">
        <route edges="1si 4o 4fi 4si 3o 3fi 3si 2o 2fi 2si 1o 1fi"/>
    </vehicle>
    <vehicle id="0.97" depart="349.20">
        <route edges="1si 3o 3fi 3si 2o 2fi 2si 4o 4fi 4si 1o 1fi"/>
    </vehicle>
    <vehicle id="0.98" depart="352.80">
        <route edges="1si 2o 2fi 2si 1o 1fi"/>
    </vehicle>
    <vehicle id="0.99" depart="356.40">
        <route edges="1si 3o 3fi 3si 2o 2fi 2si 4o 4fi 4si 1o 1fi"/>
    </vehicle>
    <vehicle id="0.100" depart="360.00">
        <route edges="1si 3o 3fi 3si 4o 4fi 4si 1o 1fi"/>
    </vehicle>
    <vehicle id="0.101" depart="363.60">
        <route edges="1si 2o 2fi 2si 1o 1fi"/>
    </vehicle>
    <vehicle id="0.102" depart="367.20">
        <route edges="1si 3o 3fi 3si 2o 2fi 2si 1o 1fi"/>
    </vehicle>
    <vehicle id="0.103" depart="370.80">
        <route edges="1si 3o 3fi 3si 1o 1fi"/>
    </vehicle>
    <vehicle id="0.104" depart="374.40">
        <route edges="1si 3o 3fi 3si 4o 4fi 4si 2o 2fi 2si 1o 1fi"/>
    </vehicle>
    <vehicle id="0.105" depart="378.00">
        <route edges="1si 3o 3fi 3si 1o 1fi"/>
    </vehicle>
    <vehicle id="0.106" depart="381.60">
        <route edges="1si 2o 2fi 2si 1o 1fi"/>
    </vehicle>
    <vehicle id="0.107" depart="385.20">
        <route edges="1si 3o 3fi 3si 4o 4fi 4si 1o 1fi"/>
    </vehicle>
    <vehicle id="0.108" depart="388.80">
        <route edges="1si 4o 4fi 4si 3o 3fi 3si 2o 2fi 2si 1o 1fi"/>
    </vehicle>
    <vehicle id="0.109" depart="392.40">
        <route edges="1si 3o 3fi 3si 4o 4fi 4si 1o 1fi"/>
    </vehicle>
    <vehicle id="0.110" depart="396.00">
        <route edges="1si 3o 3fi 3si 4o 4fi 4si 2o 2fi 2si 1o 1fi"/>
    </vehicle>
    <vehicle id="0.111" depart="399.60">
        <route edges="1si 3o 3fi 3si 4o 4fi 4si 1o 1fi"/>
    </vehicle>
    <vehicle id="0.112" depart="403.20">
        <route edges="1si 2o 2fi 2si 1o 1fi"/>
    </vehicle>
    <vehicle id="0.113" depart="406.80">
        <route edges="1si 2o 2fi 2si 1o 1fi"/>
    </vehicle>
    <vehicle id="0.114" depart="410.40">
        <route edges="1si 2o 2fi 2si 3o 3fi 3si 4o 4fi 4si 1o 1fi"/>
    </vehicle>
    <vehicle id="0.115" depart="414.00">
        <route edges="1si 4o 4fi 4si 1o 1fi"/>
    </vehicle>
    <vehicle id="0.116" depart="417.60">
        <route edges="1si 3o 3fi 3si 4o 4fi 4si 2o 2fi 2si 1o 1fi"/>
    </vehicle>
    <vehicle id="0.117" depart="421.20">
        <route edges="1si 3o 3fi 3si 1o 1fi"/>
    </vehicle>
    <vehicle id="0.118" depart="424.80">
        <route edges="1si 2o 2fi 2si 4o 4fi 4si 3o 3fi 3si 1o 1fi"/>
    </vehicle>
    <vehicle id="0.119" depart="428.40">
        <route edges="1si 4o 4fi 4si 3o 3fi 3si 1o 1fi"/>
    </vehicle>
    <vehicle id="0.120" depart="432.00">
        <route edges="1si 3o 3fi 3si 2o 2fi 2si 4o 4fi 4si 1o 1fi"/>
    </vehicle>
    <vehicle id="0.121" depart="435.60">
        <route edges="1si 3o 3fi 3si 2o 2fi 2si 4o 4fi 4si 1o 1fi"/>
    </vehicle>
    <vehicle id="0.122" depart="439.20">
        <route edges="1si 3o 3fi 3si 2o 2fi 2si 1o 1fi"/>
    </vehicle>
    <vehicle id="0.123" depart="442.80">
        <route edges="1si 2o 2fi 2si 4o 4fi 4si 1o 1fi"/>
    </vehicle>
    <vehicle id="0.124" depart="446.40">
        <route edges="1si 2o 2fi 2si 1o 1fi"/>
    </vehicle>
    <vehicle id="0.125" depart="450.00">
        <route edges="1si 2o 2fi 2si 4o 4fi 4si 3o 3fi 3si 1o 1fi"/>
    </vehicle>
    <vehicle id="0.126" depart="453.60">
        <route edges="1si 2o 2fi 2si 1o 1fi"/>
    </vehicle>
    <vehicle id="0.127" depart="457.20">
        <route edges="1si 4o 4fi 4si 3o 3fi 3si 2o 2fi 2si 1o 1fi"/>
    </vehicle>
    <vehicle id="0.128" depart="460.80">
        <route edges="1si 3o 3fi 3si 2o 2fi 2si 1o 1fi"/>
    </vehicle>
    <vehicle id="0.129" depart="464.40">
        <route edges="1si 3o 3fi 3si 4o 4fi 4si 2o 2fi 2si 1o 1fi"/>
    </vehicle>
    <vehicle id="0.130" depart="468.00">
        <route edges="1si 2o 2fi 2si 3o 3fi 3si 1o 1fi"/>
    </vehicle>
    <vehicle id="0.131" depart="471.60">
        <route edges="1si 3o 3fi 3si 4o 4fi 4si 2o 2fi 2si 1o 1fi"/>
    </vehicle>
    <vehicle id="0.132" depart="475.20">
        <route edges="1si 4o 4fi 4si 3o 3fi 3si 2o 2fi 2si 1o 1fi"/>
    </vehicle>
    <vehicle id="0.133" depart="478.80">
        <route edges="1si 2o 2fi 2si 1o 1fi"/>
    </vehicle>
    <vehicle id="0.134" depart="482.40">
        <route edges="1si 4o 4fi 4si 1o 1fi"/>
    </vehicle>
    <vehicle id="0.135" depart="486.00">
        <route edges="1si 4o 4fi 4si 3o 3fi 3si 1o 1fi"/>
    </vehicle>
    <vehicle id="0.136" depart="489.60">
        <route edges="1si 4o 4fi 4si 1o 1fi"/>
    </vehicle>
    <vehicle id="0.137" depart="493.20">
        <route edges="1si 4o 4fi 4si 3o 3fi 3si 2o 2fi 2si 1o 1fi"/>
    </vehicle>
    <vehicle id="0.138" depart="496.80">
        <route edges="1si 2o 2fi 2si 1o 1fi"/>
    </vehicle>
    <vehicle id="0.139" depart="500.40">
        <route edges="1si 2o 2fi 2si 4o 4fi 4si 3o 3fi 3si 1o 1fi"/>
    </vehicle>
    <vehicle id="0.140" depart="504.00">
        <route edges="1si 4o 4fi 4si 2o 2fi 2si 1o 1fi"/>
    </vehicle>
    <vehicle id="0.141" depart="507.60">
        <route edges="1si 4o 4fi 4si 1o 1fi"/>
    </vehicle>
    <vehicle id="0.142" depart="511.20">
        <route edges="1si 4o 4fi 4si 2o 2fi 2si 3o 3fi 3si 1o 1fi"/>
    </vehicle>
    <vehicle id="0.143" depart="514.80">
        <route edges="1si 3o 3fi 3si 4o 4fi 4si 2o 2fi 2si 1o 1fi"/>
    </vehicle>
    <vehicle id="0.144" depart="518.40">
        <route edges="1si 3o 3fi 3si 4o 4fi 4si 1o 1fi"/>
    </vehicle>
    <vehicle id="0.145" depart="522.00">
        <route edges="1si 2o 2fi 2si 1o 1fi"/>
    </vehicle>
    <vehicle id="0.146" depart="525.60">
        <route edges="1si 3o 3fi 3si 2o 2fi 2si 1o 1fi"/>
    </vehicle>
    <vehicle id="0.147" depart="529.20">
        <route edges="1si 3o 3fi 3si 2o 2fi 2si 1o 1fi"/>
    </vehicle>
    <vehicle id="0.148" depart="532.80">
        <route edges="1si 3o 3fi 3si 2o 2fi 2si 1o 1fi"/>
    </vehicle>
    <vehicle id="0.149" depart="536.40">
        <route edges="1si 3o 3fi 3si 2o 2fi 2si 4o 4fi 4si 1o 1fi"/>
    </vehicle>
    <vehicle id="0.150" depart="540.00">
        <route edges="1si 3o 3fi 3si 4o 4fi 4si 1o 1fi"/>
    </vehicle>
    <vehicle id="0.151" depart="543.60">
        <route edges="1si 4o 4fi 4si 2o 2fi 2si 3o 3fi 3si 1o 1fi"/>
    </vehicle>
    <vehicle id="0.152" depart="547.20">
        <route edges="1si 3o 3fi 3si 4o 4fi 4si 1o 1fi"/>
    </vehicle>
    <vehicle id="0.153" depart="550.80">
        <route edges="1si 4o 4fi 4si 3o 3fi 3si 2o 2fi 2si 1o 1fi"/>
    </vehicle>
    <vehicle id="0.154" depart="554.40">
        <route edges="1si 3o 3fi 3si 1o 1fi"/>
    </vehicle>
    <vehicle id="0.155" depart="558.00">
        <route edges="1si 4o 4fi 4si 1o 1fi"/>
    </vehicle>
    <vehicle id="0.156" depart="561.60">
        <route edges="1si 2o 2fi 2si 1o 1fi"/>
    </vehicle>
    <vehicle id="0.157" depart="565.20">
        <route edges="1si 2o 2fi 2si 1o 1fi"/>
    </vehicle>
    <vehicle id="0.158" depart="568.80">
        <route edges="1si 3o 3fi 3si 4o 4fi 4si 2o 2fi 2si 1o 1fi"/>
    </vehicle>
    <vehicle id="0.159" depart="572.40">
        <route edges="1si 3o 3fi 3si 4o 4fi 4si 2o 2fi 2si 1o 1fi"/>
    </vehicle>
    <vehicle id="0.160" depart="576.00">
        <route edges="1si 3o 3fi 3si 4o 4fi 4si 1o 1fi"/>
    </vehicle>
    <vehicle id="0.161" depart="579.60">
        <route edges="1si 4o 4fi 4si 1o 1fi"/>
    </vehicle>
    <vehicle id="0.162" depart="583.20">
        <route edges="1si 3o 3fi 3si 1o 1fi"/>
    </vehicle>
    <vehicle id="0.163" depart="586.80">
        <route edges="1si 3o 3fi 3si 4o 4fi 4si 1o 1fi"/>
    </vehicle>
    <vehicle id="0.164" depart="590.40">
        <route edges="1si 3o 3fi 3si 4o 4fi 4si 1o 1fi"/>
    </vehicle>
    <vehicle id="0.165" depart="594.00">
        <route edges="1si 3o 3fi 3si 1o 1fi"/>
    </vehicle>
    <vehicle id="0.166" depart="597.60">
        <route edges="1si 3o 3fi 3si 1o 1fi"/>
    </vehicle>
    <vehicle id="0.167" depart="601.20">
        <route edges="1si 2o 2fi 2si 3o 3fi 3si 4o 4fi 4si 1o 1fi"/>
    </vehicle>
    <vehicle id="0.168" depart="604.80">
        <route edges="1si 3o 3fi 3si 4o 4fi 4si 1o 1fi"/>
    </vehicle>
    <vehicle id="0.169" depart="608.40">
        <route edges="1si 2o 2fi 2si 1o 1fi"/>
    </vehicle>
    <vehicle id="0.170" depart="612.00">
        <route edges="1si 2o 2fi 2si 1o 1fi"/>
    </vehicle>
    <vehicle id="0.171" depart="615.60">
        <route edges="1si 4o 4fi 4si 3o 3fi 3si 2o 2fi 2si 1o 1fi"/>
    </vehicle>
    <vehicle id="0.172" depart="619.20">
        <route edges="1si 3o 3fi 3si 1o 1fi"/>
    </vehicle>
    <vehicle id="0.173" depart="622.80">
        <route edges="1si 2o 2fi 2si 3o 3fi 3si 4o 4fi 4si 1o 1fi"/>
    </vehicle>
    <vehicle id="0.174" depart="626.40">
        <route edges="1si 4o 4fi 4si 1o 1fi"/>
    </vehicle>
    <vehicle id="0.175" depart="630.00">
        <route edges="1si 2o 2fi 2si 1o 1fi"/>
    </vehicle>
    <vehicle id="0.176" depart="633.60">
        <route edges="1si 3o 3fi 3si 2o 2fi 2si 4o 4fi 4si 1o 1fi"/>
    </vehicle>
    <vehicle id="0.177" depart="637.20">
        <route edges="1si 3o 3fi 3si 1o 1fi"/>
    </vehicle>
    <vehicle id="0.178" depart="640.80">
        <route edges="1si 4o 4fi 4si 1o 1fi"/>
    </vehicle>
    <vehicle id="0.179" depart="644.40">
        <route edges="1si 3o 3fi 3si 4o 4fi 4si 2o 2fi 2si 1o 1fi"/>
    </vehicle>
    <vehicle id="0.180" depart="648.00">
        <route edges="1si 2o 2fi 2si 1o 1fi"/>
    </vehicle>
    <vehicle id="0.181" depart="651.60">
        <route edges="1si 2o 2fi 2si 1o 1fi"/>
    </vehicle>
    <vehicle id="0.182" depart="655.20">
        <route edges="1si 3o 3fi 3si 1o 1fi"/>
    </vehicle>
    <vehicle id="0.183" depart="658.80">
        <route edges="1si 4o 4fi 4si 3o 3fi 3si 1o 1fi"/>
    </vehicle>
    <vehicle id="0.184" depart="662.40">
        <route edges="1si 3o 3fi 3si 4o 4fi 4si 2o 2fi 2si 1o 1fi"/>
    </vehicle>
    <vehicle id="0.185" depart="666.00">
        <route edges="1si 2o 2fi 2si 4o 4fi 4si 1o 1fi"/>
    </vehicle>
    <vehicle id="0.186" depart="669.60">
        <route edges="1si 4o 4fi 4si 2o 2fi 2si 1o 1fi"/>
    </vehicle>
    <vehicle id="0.187" depart="673.20">
        <route edges="1si 3o 3fi 3si 2o 2fi 2si 4o 4fi 4si 1o 1fi"/>
    </vehicle>
    <vehicle id="0.188" depart="676.80">
        <route edges="1si 2o 2fi 2si 1o 1fi"/>
    </vehicle>
    <vehicle id="0.189" depart="680.40">
        <route edges="1si 2o 2fi 2si 1o 1fi"/>
    </vehicle>
    <vehicle id="0.190" depart="684.00">
        <route edges="1si 3o 3fi 3si 4o 4fi 4si 2o 2fi 2si 1o 1fi"/>
    </vehicle>
    <vehicle id="0.191" depart="687.60">
        <route edges="1si 2o 2fi 2si 4o 4fi 4si 1o 1fi"/>
    </vehicle>
    <vehicle id="0.192" depart="691.20">
        <route edges="1si 2o 2fi 2si 1o 1fi"/>
    </vehicle>
    <vehicle id="0.193" depart="694.80">
        <route edges="1si 2o 2fi 2si 1o 1fi"/>
    </vehicle>
    <vehicle id="0.194" depart="698.40">
        <route edges="1si 4o 4fi 4si 3o 3fi 3si 2o 2fi 2si 1o 1fi"/>
    </vehicle>
    <vehicle id="0.195" depart="702.00">
        <route edges="1si 3o 3fi 3si 4o 4fi 4si 1o 1fi"/>
    </vehicle>
    <vehicle id="0.196" depart="705.60">
        <route edges="1si 2o 2fi 2si 3o 3fi 3si 1o 1fi"/>
    </vehicle>
    <vehicle id="0.197" depart="709.20">
        <route edges="1si 3o 3fi 3si 2o 2fi 2si 4o 4fi 4si 1o 1fi"/>
    </vehicle>
    <vehicle id="0.198" depart="712.80">
        <route edges="1si 3o 3fi 3si 4o 4fi 4si 1o 1fi"/>
    </vehicle>
    <vehicle id="0.199" depart="716.40">
        <route edges="1si 4o 4fi 4si 2o 2fi 2si 1o 1fi"/>
    </vehicle>
    <vehicle id="0.200" depart="720.00">
        <route edges="1si 3o 3fi 3si 1o 1fi"/>
    </vehicle>
    <vehicle id="0.201" depart="723.60">
        <route edges="1si 2o 2fi 2si 4o 4fi 4si 1o 1fi"/>
    </vehicle>
    <vehicle id="0.202" depart="727.20">
        <route edges="1si 3o 3fi 3si 1o 1fi"/>
    </vehicle>
    <vehicle id="0.203" depart="730.80">
        <route edges="1si 2o 2fi 2si 4o 4fi 4si 3o 3fi 3si 1o 1fi"/>
    </vehicle>
    <vehicle id="0.204" depart="734.40">
        <route edges="1si 2o 2fi 2si 3o 3fi 3si 1o 1fi"/>
    </vehicle>
    <vehicle id="0.205" depart="738.00">
        <route edges="1si 2o 2fi 2si 1o 1fi"/>
    </vehicle>
    <vehicle id="0.206" depart="741.60">
        <route edges="1si 3o 3fi 3si 4o 4fi 4si 2o 2fi 2si 1o 1fi"/>
    </vehicle>
    <vehicle id="0.207" depart="745.20">
        <route edges="1si 3o 3fi 3si 1o 1fi"/>
    </vehicle>
    <vehicle id="0.208" depart="748.80">
        <route edges="1si 4o 4fi 4si 2o 2fi 2si 1o 1fi"/>
    </vehicle>
    <vehicle id="0.209" depart="752.40">
        <route edges="1si 2o 2fi 2si 1o 1fi"/>
    </vehicle>
    <vehicle id="0.210" depart="756.00">
        <route edges="1si 2o 2fi 2si 1o 1fi"/>
    </vehicle>
    <vehicle id="0.211" depart="759.60">
        <route edges="1si 4o 4fi 4si 3o 3fi 3si 2o 2fi 2si 1o 1fi"/>
    </vehicle>
    <vehicle id="0.212" depart="763.20">
        <route edges="1si 3o 3fi 3si 2o 2fi 2si 1o 1fi"/>
    </vehicle>
    <vehicle id="0.213" depart="766.80">
        <route edges="1si 2o 2fi 2si 1o 1fi"/>
    </vehicle>
    <vehicle id="0.214" depart="770.40">
        <route edges="1si 4o 4fi 4si 2o 2fi 2si 1o 1fi"/>
    </vehicle>
    <vehicle id="0.215" depart="774.00">
        <route edges="1si 4o 4fi 4si 2o 2fi 2si 1o 1fi"/>
    </vehicle>
    <vehicle id="0.216" depart="777.60">
        <route edges="1si 2o 2fi 2si 1o 1fi"/>
    </vehicle>
    <vehicle id="0.217" depart="781.20">
        <route edges="1si 2o 2fi 2si 4o 4fi 4si 1o 1fi"/>
    </vehicle>
    <vehicle id="0.218" depart="784.80">
        <route edges="1si 3o 3fi 3si 4o 4fi 4si 1o 1fi"/>
    </vehicle>
    <vehicle id="0.219" depart="788.40">
        <route edges="1si 2o 2fi 2si 4o 4fi 4si 3o 3fi 3si 1o 1fi"/>
    </vehicle>
    <vehicle id="0.220" depart="792.00">
        <route edges="1si 4o 4fi 4si 3o 3fi 3si 1o 1fi"/>
    </vehicle>
    <vehicle id="0.221" depart="795.60">
        <route edges="1si 4o 4fi 4si 1o 1fi"/>
    </vehicle>
    <vehicle id="0.222" depart="799.20">
        <route edges="1si 2o 2fi 2si 3o 3fi 3si 1o 1fi"/>
    </vehicle>
    <vehicle id="0.223" depart="802.80">
        <route edges="1si 2o 2fi 2si 1o 1fi"/>
    </vehicle>
    <vehicle id="0.224" depart="806.40">
        <route edges="1si 2o 2fi 2si 3o 3fi 3si 4o 4fi 4si 1o 1fi"/>
    </vehicle>
    <vehicle id="0.225" depart="810.00">
        <route edges="1si 3o 3fi 3si 4o 4fi 4si 1o 1fi"/>
    </vehicle>
    <vehicle id="0.226" depart="813.60">
        <route edges="1si 4o 4fi 4si 3o 3fi 3si 1o 1fi"/>
    </vehicle>
    <vehicle id="0.227" depart="817.20">
        <route edges="1si 2o 2fi 2si 3o 3fi 3si 4o 4fi 4si 1o 1fi"/>
    </vehicle>
    <vehicle id="0.228" depart="820.80">
        <route edges="1si 4o 4fi 4si 3o 3fi 3si 2o 2fi 2si 1o 1fi"/>
    </vehicle>
    <vehicle id="0.229" depart="824.40">
        <route edges="1si 3o 3fi 3si 2o 2fi 2si 1o 1fi"/>
    </vehicle>
    <vehicle id="0.230" depart="828.00">
        <route edges="1si 3o 3fi 3si 1o 1fi"/>
    </vehicle>
    <vehicle id="0.231" depart="831.60">
        <route edges="1si 3o 3fi 3si 4o 4fi 4si 2o 2fi 2si 1o 1fi"/>
    </vehicle>
    <vehicle id="0.232" depart="835.20">
        <route edges="1si 3o 3fi 3si 2o 2fi 2si 4o 4fi 4si 1o 1fi"/>
    </vehicle>
    <vehicle id="0.233" depart="838.80">
        <route edges="1si 3o 3fi 3si 2o 2fi 2si 1o 1fi"/>
    </vehicle>
    <vehicle id="0.234" depart="842.40">
        <route edges="1si 2o 2fi 2si 1o 1fi"/>
    </vehicle>
    <vehicle id="0.235" depart="846.00">
        <route edges="1si 3o 3fi 3si 4o 4fi 4si 2o 2fi 2si 1o 1fi"/>
    </vehicle>
    <vehicle id="0.236" depart="849.60">
        <route edges="1si 2o 2fi 2si 1o 1fi"/>
    </vehicle>
    <vehicle id="0.237" depart="853.20">
        <route edges="1si 3o 3fi 3si 4o 4fi 4si 2o 2fi 2si 1o 1fi"/>
    </vehicle>
    <vehicle id="0.238" depart="856.80">
        <route edges="1si 4o 4fi 4si 3o 3fi 3si 2o 2fi 2si 1o 1fi"/>
    </vehicle>
    <vehicle id="0.239" depart="860.40">
        <route edges="1si 3o 3fi 3si 4o 4fi 4si 2o 2fi 2si 1o 1fi"/>
    </vehicle>
    <vehicle id="0.240" depart="864.00">
        <route edges="1si 2o 2fi 2si 3o 3fi 3si 1o 1fi"/>
    </vehicle>
    <vehicle id="0.241" depart="867.60">
        <route edges="1si 2o 2fi 2si 3o 3fi 3si 1o 1fi"/>
    </vehicle>
    <vehicle id="0.242" depart="871.20">
        <route edges="1si 3o 3fi 3si 1o 1fi"/>
    </vehicle>
    <vehicle id="0.243" depart="874.80">
        <route edges="1si 3o 3fi 3si 1o 1fi"/>
    </vehicle>
    <vehicle id="0.244" depart="878.40">
        <route edges="1si 2o 2fi 2si 4o 4fi 4si 3o 3fi 3si 1o 1fi"/>
    </vehicle>
    <vehicle id="0.245" depart="882.00">
        <route edges="1si 2o 2fi 2si 4o 4fi 4si 1o 1fi"/>
    </vehicle>
    <vehicle id="0.246" depart="885.60">
        <route edges="1si 3o 3fi 3si 2o 2fi 2si 4o 4fi 4si 1o 1fi"/>
    </vehicle>
    <vehicle id="0.247" depart="889.20">
        <route edges="1si 3o 3fi 3si 1o 1fi"/>
    </vehicle>
    <vehicle id="0.248" depart="892.80">
        <route edges="1si 2o 2fi 2si 3o 3fi 3si 1o 1fi"/>
    </vehicle>
    <vehicle id="0.249" depart="896.40">
        <route edges="1si 2o 2fi 2si 3o 3fi 3si 1o 1fi"/>
    </vehicle>
    <vehicle id="0.250" depart="900.00">
        <route edges="1si 3o 3fi 3si 1o 1fi"/>
    </vehicle>
    <vehicle id="0.251" depart="903.60">
        <route edges="1si 3o 3fi 3si 1o 1fi"/>
    </vehicle>
    <vehicle id="0.252" depart="907.20">
        <route edges="1si 3o 3fi 3si 4o 4fi 4si 1o 1fi"/>
    </vehicle>
    <vehicle id="0.253" depart="910.80">
        <route edges="1si 2o 2fi 2si 1o 1fi"/>
    </vehicle>
    <vehicle id="0.254" depart="914.40">
        <route edges="1si 2o 2fi 2si 4o 4fi 4si 3o 3fi 3si 1o 1fi"/>
    </vehicle>
    <vehicle id="0.255" depart="918.00">
        <route edges="1si 3o 3fi 3si 1o 1fi"/>
    </vehicle>
    <vehicle id="0.256" depart="921.60">
        <route edges="1si 4o 4fi 4si 3o 3fi 3si 1o 1fi"/>
    </vehicle>
    <vehicle id="0.257" depart="925.20">
        <route edges="1si 3o 3fi 3si 4o 4fi 4si 2o 2fi 2si 1o 1fi"/>
    </vehicle>