<routes>
    <vType id="type1" accel="0.8" decel="4.5" sigma="0.5" length="5" maxSpeed="70"/>
    <route id="route0" color="1,1,0" edges="1fi 1si 3o"/>
    <vehicle id="0" type="type1" route="route0" depart="0" color="1,0,0"/>
    <vehicle id="1" type="type1" route="route0" depart="0" color="0,1,0"/>
</routes>