<?xml version="1.0" encoding="UTF-8"?>

<!-- generated on 2021-09-22 15:25:22 by Eclipse SUMO netconvert Version 1.10.0
<configuration xmlns:xsi="http://www.w3.org/2001/XMLSchema-instance" xsi:noNamespaceSchemaLocation="http://sumo.dlr.de/xsd/netconvertConfiguration.xsd">

    <input>
        <node-files value="hello.nod.xml"/>
        <edge-files value="hello.edg.xml"/>
        <tllogic-files value="hello.additional.xml"/>
    </input>

    <output>
        <output-file value="hello.net.xml"/>
    </output>

    <report>
        <aggregate-warnings value="5"/>
    </report>

</configuration>
-->

<net version="1.9" junctionCornerDetail="5" limitTurnSpeed="5.50" xmlns:xsi="http://www.w3.org/2001/XMLSchema-instance" xsi:noNamespaceSchemaLocation="http://sumo.dlr.de/xsd/net_file.xsd">

    <location netOffset="250.00,100.00" convBoundary="0.00,0.00,500.00,100.00" origBoundary="-250.00,-100.00,250.00,0.00" projParameter="!"/>

    <edge id=":2_0" function="internal">
        <lane id=":2_0_0" index="0" speed="13.89" length="0.10" shape="250.00,98.40 250.00,98.40"/>
    </edge>
    <edge id=":3_0" function="internal">
        <lane id=":3_0_0" index="0" speed="3.90" length="2.58" shape="496.80,98.40 497.50,98.30 498.00,98.00 498.30,97.50 498.40,96.80"/>
    </edge>

    <edge id="1to2" from="1" to="2" priority="-1">
        <lane id="1to2_0" index="0" speed="13.89" length="232.50" shape="17.50,98.40 250.00,98.40"/>
    </edge>
    <edge id="1to4" from="1" to="4" priority="-1">
        <lane id="1to4_0" index="0" speed="13.89" length="487.32" shape="17.16,94.94 495.02,-0.63"/>
    </edge>
    <edge id="2to3" from="2" to="3" priority="-1">
        <lane id="2to3_0" index="0" speed="13.89" length="246.80" shape="250.00,98.40 496.80,98.40"/>
    </edge>
    <edge id="3to4" from="3" to="4" priority="-1">
        <lane id="3to4_0" index="0" speed="13.89" length="94.66" shape="498.40,96.80 498.40,2.14"/>
    </edge>

    <tlLogic id="3" type="static" programID="0" offset="0">
        <phase duration="3"  state="G"/>
        <phase duration="1"  state="y"/>
        <phase duration="3"  state="r"/>
    </tlLogic>

    <junction id="1" type="dead_end" x="0.00" y="100.00" incLanes="" intLanes="" shape="17.50,100.00 17.50,96.80 17.47,96.51 16.84,93.37 7.65,95.39 2.18,97.05 0.43,98.34 2.40,99.26 8.09,99.82"/>
    <junction id="2" type="priority" x="250.00" y="100.00" incLanes="1to2_0" intLanes=":2_0_0" shape="250.00,100.00 250.00,96.80 250.00,100.00">
        <request index="0" response="0" foes="0" cont="0"/>
    </junction>
    <junction id="3" type="traffic_light" x="500.00" y="100.00" incLanes="2to3_0" intLanes=":3_0_0" shape="500.00,96.80 496.80,96.80 496.80,100.00 498.58,99.64 499.20,99.20 499.64,98.58 499.91,97.78">
        <request index="0" response="0" foes="0" cont="0"/>
    </junction>
    <junction id="4" type="dead_end" x="500.00" y="0.00" incLanes="3to4_0 1to4_0" intLanes="" shape="496.80,2.14 500.00,2.14 499.41,-0.74 498.68,-1.65 497.65,-2.19 496.32,-2.38 494.70,-2.20 495.33,0.93 496.15,0.94 496.43,1.09 496.64,1.34 496.76,1.69"/>

    <connection from="1to2" to="2to3" fromLane="0" toLane="0" via=":2_0_0" dir="s" state="M"/>
    <connection from="2to3" to="3to4" fromLane="0" toLane="0" via=":3_0_0" tl="3" linkIndex="0" dir="r" state="O"/>

    <connection from=":2_0" to="2to3" fromLane="0" toLane="0" dir="s" state="M"/>
    <connection from=":3_0" to="3to4" fromLane="0" toLane="0" dir="r" state="M"/>

</net>
